12
Coordinates from ORCA-job AcroAlX3-scan-m6xx
  C   -1.01653422059016      1.14046340438368     -0.60813269137812
  C   -2.13362925422552      0.67653111732683     -0.04253735464207
  C   -2.26547285996094     -0.66950736015414      0.46934362940972
  O   -1.41070030830133     -1.55180611610124      0.46307861595825
  H   -0.97004381305701      2.15850458053006     -0.97036380637515
  H   -0.13013733910658      0.53541687511096     -0.73641897301863
  H   -3.00723623306307      1.30346894718185      0.06793023952817
  H   -3.23141243745161     -0.94096802634569      0.90576871126746
  Al  0.37477878254151     -2.04044265095663      0.17646391173727
  Cl  1.39378504491952     -0.54185472506491      1.28431047831861
  Cl  0.59369286630769     -1.82756277383376     -1.92253893985132
  Cl  0.44981977198751     -4.00478327207702      0.91308617904582
