59
Coordinates from ORCA-job MST2-3-b3y631-s
  Si  0.50146387477184     -0.95797854845897      0.32808612234251
  C   1.33546891356145     -2.55753754622256      0.88241123620857
  C   1.75741003581146      0.19723549328004     -0.44867976157971
  C   -0.28587174491207     -0.09033108609428      1.79132368254187
  C   -0.83631880801196     -1.32545942604489     -0.93270592922865
  C   -1.55094646173022      0.45571253657772      1.87255821812304
  S   0.54295707560526      0.14191140256860      3.31842357433535
  C   -1.85547091915516      1.05383169870484      3.12398948485201
  C   1.92996717836503      1.54528767215799     -0.20693233793289
  S   2.93598769193750     -0.33223487395017     -1.63304116510600
  C   2.98685683839919      2.14610807722143     -0.94148323240329
  C   -1.04319690210198     -0.72094206430324     -2.15642514191289
  S   -2.04284899398590     -2.57441846999532     -0.69367504781572
  C   -2.14992672809136     -1.23168867215387     -2.88643339782545
  C   -0.82142168637808      0.97650948770925      4.03583886028652
  C   -0.76507411770787      1.47350675222827      5.39589484578568
  C   -2.81670835096870     -2.24746554947771     -2.23134875446277
  C   -3.97705390302713     -3.00431866241540     -2.65951606011781
  C   3.65116990584407      1.26215115351269     -1.76807982085532
  C   4.77245137244440      1.50504479315301     -2.65487151801102
  C   -4.83128137222899     -3.78261591171468     -1.91061017104652
  S   -4.46729511638858     -3.03135341899985     -4.34836776637564
  C   -5.86838980829216     -4.38860265503980     -2.67560058267370
  C   -5.82391578103424     -4.08308981220858     -4.01120608739584
  C   -6.74736703950441     -4.53526870812625     -5.10302390000023
  C   0.28692354215474      1.45775555729273      6.28482685723962
  S   -2.16621691711848      2.23172758916949      6.14244439454736
  C   -0.02120698995072      2.04458585762038      7.54486353210020
  C   -1.30471930502839      2.51631272059521      7.63825243919133
  C   -1.96939657153112      3.19126820156909      8.80113972633846
  C   5.62210616698733      0.59820886021124     -3.24855960023897
  C   6.61644004086800      1.20186430047249     -4.07005864695896
  C   6.54488386939127      2.57013128753854     -4.11458139571645
  S   5.21454910428929      3.13980211691908     -3.13116631107140
  C   7.42432235776748      3.52618891216809     -4.86520475962724
  H   2.08314328760636     -2.36424569167524      1.66098850420814
  H   1.84308506811723     -3.04755762683533      0.04292637100095
  H   0.60063154007238     -3.26259332195599      1.28880508715930
  H   -2.25036308239691      0.42453465479157      1.04314387820748
  H   -2.80551207633983      1.52948615956712      3.34586856447927
  H   1.31178759209910      2.09152121067212      0.49845733935461
  H   3.26387654767958      3.19153495452903     -0.85046969035328
  H   -0.40990214006603      0.08137501773645     -2.52159254934307
  H   -2.45690968432196     -0.85463911639219     -3.85677409761002
  H   -4.72809403410797     -3.90287534716390     -0.83688934659258
  H   -6.63323748664272     -5.02957486539712     -2.24759802603647
  H   -7.52065786584381     -5.18802879076994     -4.68471842208973
  H   -6.21784400292999     -5.09781568226150     -5.88259903602339
  H   -7.24961362835347     -3.69114443546189     -5.59265727947500
  H   1.25842941201007      1.04010249736821      6.04061263596444
  H   0.69013404823562      2.11886653718522      8.36185812406644
  H   -1.26439411227977      3.26638413626863      9.63565789290581
  H   -2.84783744671993      2.63504011941438      9.15252729817225
  H   -2.30294746982903      4.20657759280980      8.55146986532672
  H   5.54517359096313     -0.47247246860720     -3.08802460362135
  H   7.37072912142796      0.63793401224232     -4.61043383378749
  H   8.17799138223888      2.96757740651861     -5.42999905183153
  H   7.95165102896280      4.21503129880625     -4.19297977613727
  H   6.85506896293436      4.13630812582167     -5.57794927966816
